### 
### Created by X-TOOL on Mon Sep 10 21:12:45 2018
### 

@<TRIPOS>MOLECULE
1det_ligand
   36    38     1     0     0
SMALL
GAST_HUCK


@<TRIPOS>ATOM
      1 P          22.7350  -47.6960   -0.0090 P.3       1 2GP         0.2015
      2 O1P        23.9020  -47.3570   -0.7320 O.co2     1 2GP        -0.5537
      3 O2P        21.5810  -47.3360   -0.7480 O.co2     1 2GP        -0.5537
      4 O3P        22.7660  -49.1440   -0.1880 O.co2     1 2GP        -0.5537
      5 O5         19.6270  -47.8520    3.9310 O.3       1 2GP        -0.3924
      6 C5         19.5520  -46.4330    4.1580 C.3       1 2GP         0.0730
      7 C4         20.8460  -45.7400    3.7100 C.3       1 2GP         0.1139
      8 O4         21.8990  -46.4050    4.4610 O.3       1 2GP        -0.3364
      9 C3         21.2500  -45.8080    2.2670 C.3       1 2GP         0.1193
     10 O3         21.5680  -44.5100    1.7080 O.3       1 2GP        -0.3860
     11 C2         22.6520  -46.4380    2.2270 C.3       1 2GP         0.1723
     12 O2         22.6900  -47.5800    1.4800 O.3       1 2GP        -0.2646
     13 C1         23.0550  -46.5180    3.6710 C.3       1 2GP         0.2039
     14 N9         23.8290  -47.7260    4.1120 N.pl3     1 2GP        -0.2098
     15 C8         23.4390  -48.9790    4.5070 C.2       1 2GP         0.0957
     16 N7         24.4330  -49.7590    4.7810 N.2       1 2GP        -0.3235
     17 C5         25.5670  -48.9470    4.5580 C.2       1 2GP         0.0926
     18 C6         26.9630  -49.2380    4.6790 C.2       1 2GP         0.2135
     19 O6         27.4420  -50.3000    5.0250 O.2       1 2GP        -0.4091
     20 N1         27.7440  -48.1120    4.4130 N.am      1 2GP        -0.1839
     21 C2         27.2890  -46.8680    4.0140 C.2       1 2GP         0.2340
     22 N2         28.2310  -45.9750    3.7670 N.pl3     1 2GP        -0.2807
     23 N3         25.9910  -46.6070    3.8680 N.2       1 2GP        -0.2765
     24 C4         25.2100  -47.6780    4.1580 C.2       1 2GP         0.1159
     25 H1         20.3545  -48.2124    4.4242 H         1 2GP         0.2095
     26 H2         19.3964  -46.2472    5.2309 H         1 2GP         0.0584
     27 H3         18.7063  -46.0208    3.5880 H         1 2GP         0.0584
     28 H4         20.7790  -44.6783    3.9900 H         1 2GP         0.0647
     29 H5         20.5008  -46.3512    1.6724 H         1 2GP         0.0651
     30 H6         21.8161  -44.6111    0.7966 H         1 2GP         0.2100
     31 H7         23.3384  -45.7346    1.7330 H         1 2GP         0.0733
     32 H8         23.6964  -45.6463    3.8677 H         1 2GP         0.1002
     33 H9         22.3971  -49.2866    4.5825 H         1 2GP         0.1179
     34 H10        28.7327  -48.2151    4.5219 H         1 2GP         0.2515
     35 H11        27.9732  -45.0246    3.4650 H         1 2GP         0.1897
     36 H12        29.2231  -46.2293    3.8765 H         1 2GP         0.1897
@<TRIPOS>BOND
     1    1    2 ar 
     2    1    3 ar 
     3    1    4 ar 
     4   12    1 1  
     5    6    5 1  
     6    7    6 1  
     7    7    8 1  
     8    9    7 1  
     9    8   13 1  
    10    9   10 1  
    11   11    9 1  
    12   11   12 1  
    13   11   13 1  
    14   13   14 1  
    15   14   15 1  
    16   14   24 1  
    17   15   16 2  
    18   16   17 1  
    19   17   18 1  
    20   17   24 2  
    21   18   19 2  
    22   18   20 am 
    23   20   21 1  
    24   21   22 1  
    25   21   23 2  
    26   23   24 1  
    27    5   25 1  
    28    6   26 1  
    29    6   27 1  
    30    7   28 1  
    31    9   29 1  
    32   10   30 1  
    33   11   31 1  
    34   13   32 1  
    35   15   33 1  
    36   20   34 1  
    37   22   35 1  
    38   22   36 1  
@<TRIPOS>SUBSTRUCTURE
     1 2GP         1

